/*---------------------------------------------------------------------------*\
| =========                 |                                                 |
| \\      /  F ield         | OpenFOAM: The Open Source CFD Toolbox           |
|  \\    /   O peration     | Version:  v2006                                 |
|   \\  /    A nd           | Website:  www.openfoam.com                      |
|    \\/     M anipulation  |                                                 |
\*---------------------------------------------------------------------------*/
Build  : _b45f8f6f58-20200629 OPENFOAM=2006
Arch   : "LSB;label=64;scalar=64"
Exec   : interIsoCartFoam
Date   : May 17 2021
Time   : 03:45:05
Host   : lmn2604
PID    : 30060
I/O    : uncollated
Case   : /home/projects/11001025/OpenFOAM/ceeao-v1906/src/geometricVoFCartesian/src
nProcs : 1
trapFpe: Floating point exception trapping enabled (FOAM_SIGFPE).
fileModificationChecking : Monitoring run-time modified files using timeStampMaster (fileModificationSkew 5, maxFileModificationPolls 20)
allowSystemOperations : Allowing user-supplied system call operations

// * * * * * * * * * * * * * * * * * * * * * * * * * * * * * * * * * * * * * //
Create time



--> FOAM FATAL ERROR: 
cannot find file "/home/projects/11001025/OpenFOAM/ceeao-v1906/src/geometricVoFCartesian/src/system/controlDict"

    From Foam::autoPtr<Foam::ISstream> Foam::fileOperations::uncollatedFileOperation::readStream(Foam::regIOobject &, const Foam::fileName &, const Foam::word &, bool) const
    in file global/fileOperations/uncollatedFileOperation/uncollatedFileOperation.C at line 546.

FOAM exiting

